Version 4
SHEET 1 1616 680
WIRE 80 -16 16 -16
WIRE 112 -16 80 -16
WIRE 112 48 112 -16
WIRE -160 96 -176 96
WIRE 80 96 -160 96
WIRE 352 96 240 96
WIRE 384 96 352 96
WIRE 16 160 16 64
WIRE 48 160 16 160
WIRE 80 160 48 160
WIRE 384 160 240 160
WIRE 16 176 16 160
WIRE 48 224 48 160
WIRE 272 224 48 224
WIRE 352 224 352 96
WIRE 80 256 16 256
WIRE 112 256 112 208
WIRE 112 256 80 256
WIRE -176 288 -176 96
FLAG 80 256 0
FLAG 320 0 0
FLAG -176 368 0
FLAG 320 -80 Vuc
FLAG 416 -80 Vcc
FLAG 80 -16 Vcc
FLAG -160 96 V_sig
FLAG 384 96 V_out
FLAG 240 16 Vuc
FLAG 384 160 0
FLAG 416 0 0
SYMBOL voltage -176 272 R0
WINDOW 123 0 0 Left 2
WINDOW 39 24 124 Left 2
SYMATTR SpiceLine Rser=.1
SYMATTR InstName V1
SYMATTR Value SINE(2.75 1.75 1k 0 0 0 4)
SYMBOL voltage 320 -96 R0
WINDOW 123 0 0 Left 2
WINDOW 39 24 44 Left 2
SYMATTR InstName V2
SYMATTR Value 3.3
SYMBOL voltage 416 -96 R0
WINDOW 123 0 0 Left 2
WINDOW 39 24 44 Left 2
SYMATTR InstName V3
SYMATTR Value 5
SYMBOL res 32 272 R180
WINDOW 0 36 76 Left 2
WINDOW 3 36 40 Left 2
SYMATTR InstName R1
SYMATTR Value 1k
SYMBOL res 32 80 R180
WINDOW 0 36 76 Left 2
WINDOW 3 36 40 Left 2
SYMATTR InstName R2
SYMATTR Value 1k
SYMBOL res 224 0 R0
SYMATTR InstName R3
SYMATTR Value 1k
SYMBOL Opamps\\LM111 144 128 R0
SYMATTR InstName U1
SYMBOL res 368 208 R90
WINDOW 0 0 56 VBottom 2
WINDOW 3 32 56 VTop 2
SYMATTR InstName R4
SYMATTR Value 10k
TEXT -208 392 Left 2 !.tran 5m
TEXT 600 -80 Left 2 !.subckt LM111    1  2  3  4  5  6\n*\n  f1    9  3 v1 1\n  iee   3  7 dc 100.0E-6\n  vi1  21  1 dc .45\n  vi2  22  2 dc .45\n  q1    9 21  7 qin\n  q2    8 22  7 qin\n  q3    9  8  4 qmo\n  q4    8  8  4 qmi\n.model qin PNP(Is=800.0E-18 Bf=833.3)\n.model qmi NPN(Is=800.0E-18 Bf=1002)\n.model qmo NPN(Is=800.0E-18 Bf=1000 Cjc=1E-15 Tr=118.8E-9)\n  e1   10  6  9  4  1\n  v1   10 11 dc 0\n  q5    5 11  6 qoc\n.model qoc NPN(Is=800.0E-18 Bf=34.49E3 Cjc=1E-15 Tf=364.6E-12 Tr=79.34E-9)\n  dp    4  3 dx\n  rp    3  4 6.122E3\n.model dx  D(Is=800.0E-18 Rs=1)\n*\n.ends
