Version 4
SHEET 1 880 680
WIRE -1520 -656 -1584 -656
WIRE -1392 -656 -1520 -656
WIRE -1584 -640 -1584 -656
WIRE -1552 -576 -1584 -576
WIRE -1520 -576 -1552 -576
WIRE -1616 -496 -1696 -496
WIRE -1488 -496 -1552 -496
WIRE -1360 -496 -1488 -496
WIRE -1552 -480 -1552 -496
WIRE -1520 -416 -1552 -416
WIRE -1488 -416 -1520 -416
FLAG -2016 -400 0
FLAG -2016 -480 CHAN
FLAG -1648 -656 CHAN
FLAG -1552 -576 0
FLAG -1520 -416 0
SYMBOL res -1536 -672 R0
SYMATTR InstName R9
SYMATTR Value 1k
SYMBOL diode -1616 -480 R270
WINDOW 0 32 32 VTop 2
WINDOW 3 0 32 VBottom 2
SYMATTR InstName D4
SYMATTR Value 1N4148
SYMBOL voltage -2016 -496 R0
WINDOW 123 0 0 Left 2
WINDOW 39 0 0 Left 2
SYMATTR InstName V3
SYMATTR Value SINE(0 3.3 433meg)
SYMBOL cap -1600 -640 R0
SYMATTR InstName C15
SYMATTR Value .1µ
SYMBOL res -1504 -512 R0
SYMATTR InstName R1
SYMATTR Value 1k
SYMBOL diode -1584 -672 R90
WINDOW 0 0 32 VBottom 2
WINDOW 3 32 32 VTop 2
SYMATTR InstName D1
SYMATTR Value 1N4148
SYMBOL cap -1568 -480 R0
SYMATTR InstName C1
SYMATTR Value 33p
TEXT -1304 -264 Left 2 !.tran 1u
