Version 4
SHEET 1 880 680
WIRE 80 -16 16 -16
WIRE 112 -16 80 -16
WIRE 112 96 112 -16
WIRE 80 112 -176 112
WIRE 288 128 144 128
WIRE 16 144 16 64
WIRE 80 144 16 144
WIRE 16 176 16 144
WIRE 80 256 16 256
WIRE 112 256 112 160
WIRE 112 256 80 256
WIRE -176 288 -176 112
FLAG 80 256 0
FLAG 320 0 0
FLAG -176 368 0
FLAG 320 -80 Vuc
FLAG 416 -80 Vcc
FLAG 80 -16 Vcc
SYMBOL voltage -176 272 R0
WINDOW 123 0 0 Left 2
WINDOW 39 0 0 Left 2
SYMATTR InstName V1
SYMATTR Value PULSE(1 4.5 .001 .001 .001 .5 1 4)
SYMBOL voltage 320 -96 R0
WINDOW 123 0 0 Left 2
WINDOW 39 0 0 Left 2
SYMATTR InstName V2
SYMATTR Value 3
SYMBOL voltage 416 -96 R0
WINDOW 123 0 0 Left 2
WINDOW 39 0 0 Left 2
SYMATTR InstName V3
SYMATTR Value 5
SYMBOL Comparators\\LTC1841 112 128 R0
SYMATTR InstName U2
SYMBOL res 32 272 R180
WINDOW 0 36 76 Left 2
WINDOW 3 36 40 Left 2
SYMATTR InstName R1
SYMATTR Value 1k
SYMBOL res 32 80 R180
WINDOW 0 36 76 Left 2
WINDOW 3 36 40 Left 2
SYMATTR InstName R2
SYMATTR Value 1k
TEXT -210 392 Left 2 !.tran 5
