Version 4
SHEET 1 972 680
WIRE 144 16 64 16
WIRE 496 16 224 16
WIRE -16 64 -16 16
WIRE 144 128 144 16
WIRE 176 128 144 128
WIRE 496 144 496 16
WIRE 496 144 240 144
WIRE 16 160 -464 160
WIRE 144 160 96 160
WIRE 176 160 144 160
WIRE 16 272 -48 272
WIRE 144 272 144 160
WIRE 144 272 96 272
FLAG 816 320 0
FLAG 208 176 0
FLAG 816 240 VCC
FLAG 208 112 VCC
FLAG -464 240 0
FLAG -48 352 0
FLAG -16 64 0
FLAG 496 224 0
SYMBOL voltage 816 224 R0
WINDOW 123 0 0 Left 2
WINDOW 39 0 0 Left 2
SYMATTR InstName V1
SYMATTR Value 5
SYMBOL res 112 256 R90
WINDOW 0 0 56 VBottom 2
WINDOW 3 32 56 VTop 2
SYMATTR InstName R1
SYMATTR Value 1k
SYMBOL res 112 144 R90
WINDOW 0 0 56 VBottom 2
WINDOW 3 32 56 VTop 2
SYMATTR InstName R2
SYMATTR Value 1k
SYMBOL voltage -48 256 R0
WINDOW 123 0 0 Left 2
WINDOW 39 0 0 Left 2
SYMATTR InstName V2
SYMATTR Value 0.94286
SYMBOL voltage -464 144 R0
WINDOW 123 0 0 Left 2
WINDOW 39 0 0 Left 2
SYMATTR InstName V3
SYMATTR Value PULSE(0 3.3 .001 .001 .001 .5 1 4)
SYMBOL res 80 0 R90
WINDOW 0 0 56 VBottom 2
WINDOW 3 32 56 VTop 2
SYMATTR InstName R3
SYMATTR Value 1k
SYMBOL res 240 0 R90
WINDOW 0 0 56 VBottom 2
WINDOW 3 32 56 VTop 2
SYMATTR InstName R4
SYMATTR Value 1121
SYMBOL Opamps\\LT1006 208 80 R0
SYMATTR InstName U2
SYMBOL res 480 128 R0
SYMATTR InstName R7
SYMATTR Value 1Meg
TEXT -498 376 Left 2 !.tran 5
TEXT -392 -168 Left 2 ;R1 and R4 are likely to be pots if we need them to be exact. Otherwise, we'll just deal with the imprecision
