Version 4
SHEET 1 972 680
WIRE 144 16 64 16
WIRE 496 16 224 16
WIRE -16 64 -16 16
WIRE 224 64 208 64
WIRE 144 112 144 16
WIRE 176 112 144 112
WIRE 496 112 496 16
WIRE 496 112 336 112
WIRE 16 160 -464 160
WIRE 144 160 96 160
WIRE 144 176 144 160
WIRE 176 176 144 176
WIRE 416 176 336 176
WIRE 416 192 416 176
WIRE 496 192 416 192
WIRE 416 224 416 192
WIRE 16 272 -48 272
WIRE 144 272 144 176
WIRE 144 272 96 272
FLAG 816 320 0
FLAG 208 224 0
FLAG 816 240 VCC
FLAG 224 64 VCC
FLAG -464 240 0
FLAG -48 352 0
FLAG -16 64 0
FLAG 416 224 0
FLAG 496 -64 VCC
SYMBOL voltage 816 224 R0
WINDOW 123 0 0 Left 2
WINDOW 39 0 0 Left 2
SYMATTR InstName V1
SYMATTR Value 5
SYMBOL res 112 256 R90
WINDOW 0 0 56 VBottom 2
WINDOW 3 32 56 VTop 2
SYMATTR InstName R1
SYMATTR Value 1k
SYMBOL res 112 144 R90
WINDOW 0 0 56 VBottom 2
WINDOW 3 32 56 VTop 2
SYMATTR InstName R2
SYMATTR Value 1k
SYMBOL voltage -48 256 R0
WINDOW 123 0 0 Left 2
WINDOW 39 0 0 Left 2
SYMATTR InstName V2
SYMATTR Value 0.94286
SYMBOL voltage -464 144 R0
WINDOW 123 0 0 Left 2
WINDOW 39 0 0 Left 2
SYMATTR InstName V3
SYMATTR Value PULSE(0 3.3 .001 .001 .001 .5 1 4)
SYMBOL res 80 0 R90
WINDOW 0 0 56 VBottom 2
WINDOW 3 32 56 VTop 2
SYMATTR InstName R3
SYMATTR Value 1k
SYMBOL res 240 0 R90
WINDOW 0 0 56 VBottom 2
WINDOW 3 32 56 VTop 2
SYMATTR InstName R4
SYMATTR Value 1121
SYMBOL res 480 -80 R0
SYMATTR InstName R7
SYMATTR Value 10k
SYMBOL Opamps\\LM111 240 144 R0
WINDOW 0 18 -57 Left 2
SYMATTR InstName U1
TEXT -496 376 Left 2 !.tran 5
TEXT -392 -168 Left 2 ;R1 and R4 are likely to be pots if we need them to be exact. Otherwise, we'll just deal with the imprecision
TEXT -1288 -368 Left 2 !.subckt LM111    1  2  3  4  5  6\n*\n  f1    9  3 v1 1\n  iee   3  7 dc 100.0E-6\n  vi1  21  1 dc .45\n  vi2  22  2 dc .45\n  q1    9 21  7 qin\n  q2    8 22  7 qin\n  q3    9  8  4 qmo\n  q4    8  8  4 qmi\n.model qin PNP(Is=800.0E-18 Bf=833.3)\n.model qmi NPN(Is=800.0E-18 Bf=1002)\n.model qmo NPN(Is=800.0E-18 Bf=1000 Cjc=1E-15 Tr=118.8E-9)\n  e1   10  6  9  4  1\n  v1   10 11 dc 0\n  q5    5 11  6 qoc\n.model qoc NPN(Is=800.0E-18 Bf=34.49E3 Cjc=1E-15 Tf=364.6E-12 Tr=79.34E-9)\n  dp    4  3 dx\n  rp    3  4 6.122E3\n.model dx  D(Is=800.0E-18 Rs=1)\n*\n.ends
