Version 4
SHEET 1 880 680
WIRE 16 160 -48 160
WIRE 176 160 96 160
WIRE 16 272 -48 272
WIRE 96 272 96 160
FLAG 208 -16 0
FLAG 208 176 0
FLAG 208 -96 VCC
FLAG 208 112 VCC
FLAG -48 352 0
SYMBOL Opamps\\LT1097 208 80 R0
SYMATTR InstName U1
SYMBOL voltage 208 -112 R0
SYMATTR InstName V1
SYMBOL res 112 256 R90
WINDOW 0 0 56 VBottom 2
WINDOW 3 32 56 VTop 2
SYMATTR InstName R1
SYMBOL res 112 144 R90
WINDOW 0 0 56 VBottom 2
WINDOW 3 32 56 VTop 2
SYMATTR InstName R2
SYMBOL voltage -48 256 R0
WINDOW 123 0 0 Left 2
WINDOW 39 0 0 Left 2
SYMATTR InstName V2
SYMATTR Value 1
SYMBOL voltage -48 256 R0
SYMATTR InstName V3
